Version 4
SHEET 1 1832 680
WIRE 16 48 -272 48
WIRE 176 48 96 48
WIRE 448 48 448 16
WIRE 448 48 176 48
WIRE 512 48 448 48
WIRE 576 48 512 48
WIRE 640 48 576 48
WIRE 960 48 896 48
WIRE 1024 48 960 48
WIRE 1088 48 1088 16
WIRE 1088 48 1024 48
WIRE 1344 48 1088 48
WIRE 1472 48 1344 48
WIRE 1600 48 1472 48
WIRE 1728 48 1600 48
WIRE 448 112 448 48
WIRE 512 112 512 48
WIRE 576 112 576 48
WIRE 960 112 960 48
WIRE 1024 112 1024 48
WIRE 1088 112 1088 48
WIRE 1344 112 1344 48
WIRE 1472 112 1472 48
WIRE 1600 112 1600 48
WIRE 1728 112 1728 48
WIRE -272 128 -272 48
WIRE 176 144 176 128
WIRE 176 144 96 144
WIRE 176 160 176 144
WIRE 96 192 96 144
WIRE -272 240 -272 160
WIRE -144 240 -272 240
WIRE 0 240 -112 240
WIRE 16 240 0 240
WIRE 128 240 112 240
WIRE 176 240 176 224
WIRE 176 240 128 240
WIRE 288 240 176 240
WIRE 448 240 448 176
WIRE 448 240 320 240
WIRE 512 240 512 176
WIRE 512 240 448 240
WIRE 576 240 576 176
WIRE 576 240 512 240
WIRE 768 240 768 144
WIRE 768 240 576 240
WIRE 960 240 960 176
WIRE 960 240 768 240
WIRE 1024 240 1024 176
WIRE 1024 240 960 240
WIRE 1088 240 1088 176
WIRE 1088 240 1024 240
WIRE 1344 240 1344 192
WIRE 1344 240 1088 240
WIRE 1472 240 1472 192
WIRE 1472 240 1344 240
WIRE 1600 240 1600 192
WIRE 1600 240 1472 240
WIRE 1728 240 1728 192
WIRE 1728 240 1600 240
WIRE 448 272 448 240
WIRE 1088 272 1088 240
FLAG 1088 272 0
FLAG -272 48 Vin+
FLAG 96 144 g
FLAG 0 240 d
FLAG 128 240 s
FLAG 1088 16 +5V
FLAG -272 240 Vin-
FLAG 448 16 +18V
FLAG 448 272 0
SYMBOL nmos 16 192 M90
WINDOW 0 -17 28 VRight 2
WINDOW 3 76 -24 VRight 2
SYMATTR InstName M1
SYMATTR Value IPP024N06N3
SYMBOL MiniSyms4\\voltage- -272 144 M0
SYMATTR InstName V1
SYMATTR Value {Vin}
SYMBOL res 1328 96 R0
SYMATTR InstName atmega
SYMATTR Value {Ro}
SYMBOL res 192 32 M0
SYMATTR InstName R3
SYMATTR Value 1Meg
SYMBOL cap 432 112 R0
SYMATTR InstName C4
SYMATTR Value 100n
SYMBOL res 112 32 R90
WINDOW 0 0 56 VBottom 2
WINDOW 3 32 56 VTop 2
SYMATTR InstName F
SYMATTR Value .150
SYMBOL cap 496 112 R0
SYMATTR InstName C1
SYMATTR Value 100n
SYMBOL zener 192 224 R180
WINDOW 0 24 64 Left 2
WINDOW 3 -88 -44 Left 2
SYMATTR InstName D1
SYMATTR Value MMBZ10VAL
SYMATTR Description Diode
SYMATTR Type diode
SYMBOL Vreg\\7805 768 48 R0
SYMATTR InstName U1
SYMBOL cap 560 112 R0
SYMATTR InstName C2
SYMATTR Value 1u
SYMBOL cap 944 112 R0
SYMATTR InstName C3
SYMATTR Value 100n
SYMBOL cap 1008 112 R0
SYMATTR InstName C5
SYMATTR Value 100n
SYMBOL cap 1072 112 R0
SYMATTR InstName C6
SYMATTR Value 10u
SYMBOL MiniSyms4\\res- -128 240 R90
WINDOW 3 8 0 VTop 2
WINDOW 0 -8 0 VBottom 2
SYMATTR Value 1u
SYMATTR InstName R1
SYMBOL MiniSyms4\\res- 304 240 R90
WINDOW 3 8 0 VTop 2
WINDOW 0 -8 0 VBottom 2
SYMATTR Value 1u
SYMATTR InstName R2
SYMBOL res 1456 96 R0
SYMATTR InstName Oled
SYMATTR Value 165
SYMBOL res 1584 96 R0
SYMATTR InstName leds
SYMATTR Value 650
SYMBOL res 1712 96 R0
SYMATTR InstName buzzer
SYMATTR Value 1650
TEXT -272 328 Left 2 !.tran 0 1 0 startup
TEXT 1056 -224 Left 2 !.param Vin = 18\n.param Vo = 5\n.param Io = 10e-3\n.param Ro = Vo/Io
TEXT -8 -24 Left 2 ;500mA FUSE
TEXT 200 192 Left 2 ;10~15V
TEXT 40 288 Left 1 ;480nW
TEXT 104 88 Left 1 ;70uW
TEXT 176 288 Left 1 ;80uW
TEXT 32 0 Left 1 ;460uW
TEXT 768 -32 Left 1 ;750mW
TEXT 744 -200 Left 1 ;Po = 250mW
TEXT 744 -224 Left 1 ;Pin = 1W
TEXT 744 -176 Left 1 ;Eff = 25%
TEXT 744 -152 Left 1 ;Polarity Protection Losses = 500uW
